Circuit: * D:\_Workspace\lvCurrent\SIM\Battery-SelfCheck\battery_selfcheck.asc

Direct Newton iteration for .op point succeeded.
Heightened Def Con from 2.03095e-005 +++++++++++++++++++++++to 2.03106e-005
Heightened Def Con from 2.07909e-005 to 2.07909e-005
Heightened Def Con from 2.11131e-005 +++++++++++++++++++++++to 2.11142e-005
Heightened Def Con from 2.11142e-005 to 2.11155e-005
Heightened Def Con from 2.13145e-005 to 2.13145e-005
Heightened Def Con from 2.1516e-005 +++++++++++++++++++++++to 2.15171e-005
Heightened Def Con from 2.15171e-005 to 2.15183e-005
Heightened Def Con from 2.17179e-005 +++++++++++++++++++++++to 2.1719e-005
Heightened Def Con from 2.1719e-005 ++++++++++++++++++++to 2.1719e-005
Heightened Def Con from 2.21788e-005 +++++++++++++++++++++++to 2.218e-005
Heightened Def Con from 2.29626e-005 +++++++++++++++++++++++to 2.29638e-005

Date: Sun May 14 16:49:09 2023
Total elapsed time: 0.584 seconds.

tnom = 27
temp = 27
method = modified trap
totiter = 47312
traniter = 47287
tranpoints = 9968
accept = 6120
rejected = 4017
matrix size = 46
fillins = 52
solver = Normal
Matrix Compiler1: 3.75 KB object code size  1.4/0.7/[0.3]
Matrix Compiler2: 4.10 KB object code size  0.7/0.6/[0.6]

